qbo_use_forcing = .false.
mfilt=1,1,1,1,1,1
ndens=1,1,1,1,1,1
nhtfrq=9,9,9,9,9,9
inithist='ENDOFRUN'
fincl1 = ' '
fincl2 = ' '
fincl3 = ' '
fincl4 = ' '
fincl5 = ' '
fincl6 = ' '
fincl7 = ' '
fincl8 = ' '
fincl9 = ' '
history_aerosol = .false.
history_chemistry = .false.
history_amwg = .false.
history_carma = .false.
history_clubb = .false.
