use_init_interp=.true.
check_finidat_year_consistency = .false.
