! Users should add all user specific namelist changes below in the form of 
! namelist_var = new_namelist_value 

 met_data_file          = '2012/MERRA_19x2_20120229.nc'
 met_data_path          = '/glade/p/cesmdata/cseg/inputdata/atm/cam/met/MERRA'
